         408
 MC_STEP:      4400000
 C4      -1.6871373276364448       -6.4400439250853916        10.526725824208231     
 C4      -16.315911797323675        7.1990052454791131        16.239136435888298     
 C4      -13.009101638594775        9.1363178162957830        6.2008904224870696     
 C4       10.151158060215714        11.362990453984656       -7.0347680218345792     
 C4      -1.9305390003028651        2.3381890261851854       -1.1775506244520919     
 C4      -11.291497848808746       -15.293009276846984        16.213298824922649     
 C4      -3.0524669390025121        8.7979388541376569        2.6952315388129473     
 C4      -5.8752188794168614        6.1088845183934284       -2.1720011859748434     
 C4      0.20246790055355729       -9.9570560219219661        9.4855104543794244     
 C4       11.632596758064167        2.8769082507668520       -12.603773678057733     
 C4       11.377321065987751        14.673722800555662        5.6404920296969010     
 C4      -16.280350449990770       -11.389598202317142       -9.1556251218940599     
 C4      -12.565642471101247        13.807528544930834       -4.4494286807637540     
 C4       13.250781162878216       -6.3237046105839054       -16.332387587404671     
 C4      -14.176662868607405        5.8520269244881549       -2.5871329918934345     
 C4      -12.248134776930389       -13.077998334445438        11.565851252639265     
 C4       13.762464969244460        15.632777117540686        12.779980348497055     
 C4       9.6061243620520926        11.102600639901061       -13.515226249644055     
 C4       11.809118102520646        14.773896741519577       -9.5496681804512704     
 C4      -10.653437554876492       -15.532416604321636        3.2072478327000229     
 C4      0.28058885651412008       -3.3675783275624567        6.3608228640101911     
 C4       3.4992717630196655        3.9777429532846811       -11.563565851983375     
 C4      -9.0134475199439983        14.659566692270403       -10.317083076179994     
 C4       2.7380529892145078        13.787602437237192        13.292465350139180     
 C4       9.5802327097591711        11.624975151081255        15.568059537432616     
 C4       6.9931277933314737       0.16072952379949151        14.940990018255832     
 C4      0.15607408035356110       -9.4107694178267778        14.498695959790762     
 C4      -8.8140888728856286       -12.179851072494115        2.4987101425050509     
 C4     -0.90246286103709994        12.751120254979851        1.8545594038501505     
 C4       11.571186563327640        15.142907015108445       -5.5336570473931213     
 C4       4.9657389966562757        4.9654556869012465      -0.85913952434336494     
 C4       6.6903376883653536        11.177128557696211       -4.8015373955621294     
 C4       15.007199052525708        5.5257845327289932       -12.308734633003322     
 C4       10.216504338562705        12.435824630755848       -1.5320882232871735     
 C4      -13.506365383719393        9.2277723973340731       -7.3534661920605435     
 C4       14.091810632386361        9.7718245940232826       -7.5352884065711274     
 C4       3.6031049119661818E-002  -15.861790758321686        4.9562605555320962     
 C4       13.777261323522811       -15.274805263678791        15.843363145443769     
 C4       8.5265147036101006       -4.8690643474710864       -15.686908537505401     
 C4       5.6043048658993477       -4.1584720725418958        7.9282142331301024     
 C4      -8.4028944473533986        1.4818772506614601        11.122074995685489     
 C4      -14.631621100717512        3.7534083120422013        15.893432428423726     
 C4      -6.0351430070763019        2.9367371080203926        7.3692065199643908     
 C4       5.7074784165614751        2.9737896977609224       -14.680534612090957     
 C4       14.791793224355253       -13.165572722276698        7.8978198713355487     
 C4       9.3171389414134307       -11.708250827532568       -8.9879618566086350     
 C4       1.3898575083876503        2.3346985686863984       -15.993997666100826     
 C4       13.953920355731466       -14.345258704819633       -10.709842142529510     
 C4     -0.92108685921237055        1.2352500526360664       -8.1785990128123576     
 C4       8.8063746667693650        6.8628130630620161       -1.8615547110157353     
 C4      0.29015368863457952       -13.008200839380077        15.214048291339472     
 C4       3.1891187368854856       -11.177863519426507        1.2162108129996694     
 C4       8.1332352571022728        9.9525229202840908       -10.150552560483167     
 C4       5.7411390091815866        10.833904096418227       -13.685386357791463     
 C4       7.7869340022697351       -10.913461670732739        12.198158444702919     
 C4       11.858640062136443       -12.773962124143464        4.9594381448035891     
 C4       12.495268344531510        8.7873974025595132       -1.6820251358163247     
 C4      -12.015550157923133       -11.492903197158276      -0.14734867263946008     
 C4      -12.410606869282317        12.604370940475549        15.725108022674789     
 C4      -11.468466329899492       -9.7068270481282717       -6.8809315747112771     
 C4       11.630842144165317       -8.9617768186165652       -10.266003367335106     
 C4      0.59374778899858971       -10.785210726766236       -9.3171677776549657     
 C4       8.0615568410448688        8.7827337333355047        12.837567480589692     
 C4       8.7336602906108780       -2.6114850482253864       -12.206509042049557     
 C4      -5.5871596016778664       -5.2032576743004970        12.044037870234606     
 C4      -8.8181735583786640        8.0940097232646231      -0.41138375205092659     
 C4      -15.995969633370256        3.9107644019227266       -7.6777328425969023     
 C4      -3.2274067687020063        8.6912636987138399       -4.6068333007475326     
 C4       6.6847345647398893        14.623098084398714        14.568069907363592     
 C4      -15.911953393782264        11.928651907110719       -10.603196538953050     
 C4       5.3859729536168013        4.8918265072858036       -5.4253219677988769     
 C4       4.0103733899810212       0.77683940543673113        9.0536512328391634     
 C4       3.9586682615387350       -1.0171353109118901       -11.555330105497568     
 C4       2.4643051409570069        9.8724299025398814        11.992903833103069     
 C4       4.6094529172417369       -8.7050288440135724       -9.5364494352187066     
 C4       2.3833727098226265       -7.4978463918143667      -0.20019776178086299     
 C4       9.3785164089712865        15.225590489406772        10.845726314461359     
 C4       11.327317728414435       -1.6003707078222238        11.357913805627186     
 C4       6.8055603408647833      -0.73692177004283810        10.688047982680487     
 C4       11.252956343281166        14.888745733413174       -15.888952270074114     
 C4      -8.6178462244794662       -11.918523740045254        9.4573250030754430     
 C4       2.6234292375150448        12.959087801507012        8.0254750576976246     
 C4       2.2068639441467743        10.539492636492609       -16.235142416202805     
 C4       10.118820982425806       -10.669908829059922        7.8249368038651896     
 C4      -1.8340394579743640       -13.539013173226632        8.7129530996580460     
 C4      -16.279111537806916       -1.6260354570141222        13.734037536260665     
 C4      -12.091461331207617       -5.6203644305234466       -8.6854390094273271     
 C4      -7.1336266391932330        6.4483859327493969       -6.4419288868213833     
 C4       12.334500376497063       -6.1195687668251741       -12.391732868343677     
 C4     -0.84695903404400985        1.9165740567215315        12.906637780290939     
 C4       11.300089515780108       -9.9911656765358519        15.467082036590202     
 C4       5.0927774782133275       -11.486364111870911       -3.1130722165087206     
 C4       5.3470383514252262        10.985006299263283        14.592217432001275     
 C4      -13.429945902361442       -12.379929564638699        3.5651434940234461     
 C4      -6.4383198987331420       -15.164381347311899        10.230185843072297     
 C4      -8.0010791287757108       -2.1696491045303326        11.487768492787056     
 C4       10.430085930093814        5.1555899920503405       -9.0880554834767295     
 C4       4.8286006645809891        7.0682129580982274        14.119122768685862     
 C4       9.1436371957907703        6.3230320694574536       -15.065909629572248     
 C4       16.293029763533614       -1.5942660970102143        5.1809560119751259     
 C4       7.0443881923815805        6.2993940540770454       -11.575681475484114     
 C4      -13.572226491971584       -14.720280477600076       -2.6086667266410424     
 C4       2.5940509726558250       -5.6425707593592467       -9.9381749442276472     
 C4      -8.2193387678273631        10.049100433739708       -4.2700720420719360     
 C4       12.722804463462005       -1.1094243881969557       -12.944962345547008     
 C4      -14.353032585302589       -7.1538412568155874       -5.7495597947707493     
 C4      -2.8283064242998961       -11.301119463529108       -6.6023447877709094     
 C4       16.272297381318445        6.6866234402647677        12.054142559739111     
 C4      0.75652815588486033        14.292721073195063       -9.2127268657706960     
 C4       11.320907120721024        8.8844354562203272        10.457139639029435     
 C4      -4.0664784606971169       -13.632360504213628       -9.6869114046893898     
 C4       2.3356215049857378       -6.6720238569014425        7.0849461208249966     
 C4       6.5050949672119671       0.82515193198088443       -6.5897133765848448     
 C4      -15.949474839464120      -0.14903415259227143       -6.6060941282643659     
 C4       3.5399005278585136        15.158572949397701        4.2944506168786551     
 C4      -2.5109459522840032       -12.330343175891263        12.401648404359779     
 C4      -10.541097683058478       -10.793900079703675        15.766221985566236     
 C4       14.451099395049344        15.466921521126373       -13.283934296749496     
 C4       7.7194994228603377       -6.4463176485169393       -10.347632625158093     
 C4      -4.6826460214615535       -8.0007252178384736       -7.4433256137340731     
 C4      -10.409947729907591       -2.6336930704103461       -10.324653339100330     
 C4      -10.880112349768636       -6.2644709988833505       -14.865774501978979     
 C4       7.8292555852763730        7.9957581616260018        6.7340267189126557     
 C4      -7.2409577465052877        10.107546986350378       -11.420401422332018     
 C4      -11.681083084659628       -14.689292318017769       -11.570501611121244     
 C4       14.759976306517833        12.052903944294611       -15.771991845390925     
 C4       7.1399711082154473        15.364815709271165       -14.052505379120438     
 C4       2.0697636529110950       -15.321396322840329       -11.742776016508028     
 C4       2.7308591156600834       -15.667321144721569       -15.964187591201153     
 C4      -2.9878341927203422       -13.004868776982935        2.8474556322540177     
 C4      -10.153195562934052       -4.3174343691991872        14.389428797864934     
 C4      -15.235796946952361       -16.187358660891181       -15.946981107546899     
 C4       9.2164644892307592       -14.271601895309153        15.610539536587293     
 C4       3.7008971562044266        9.3201423831448924       -10.321390698934612     
 C4       2.6439838065527930        4.8701857827839072        10.522218099669955     
 C4      -15.995705983657231       -5.7310834386497138       -12.188062587762392     
 C4      -13.457846078754065        1.1810607727727938       -14.066366215406786     
 C4       15.735722362268692       0.96058589918271808        9.6165315368044713     
 C4      -3.1969013692318637       -3.5194960838152296       -8.3152555830628216     
 C4       15.470414501973329       -9.5198968075757708        14.208316168894545     
 C4       6.1204313329853512       -7.7077476233415494       -2.1978959562457967     
 C4      -5.2803806802111062        10.856485249248726       -14.878988646676870     
 C4       13.429032574489634        11.873636220011848        8.2028500922175329     
 C4       9.3627995840340432       -15.122477477108891       -10.856241876500734     
 C4       1.1111127183975649       -1.3817740731967991       -1.2887890546203717     
 C4      -12.372297605804738       -4.2233570161965428        9.0401008591838092     
 C4       5.1666106106750274       -5.9103367481300397       -14.002580179014105     
 C4       4.7609109404307839        7.9308446470511935        9.7621864311465991     
 C4      -2.9389063391298924       -8.0522056810705838      -0.91381844750509156     
 C4       12.472192889295950       -13.770440897842846       -6.3354066052788243     
 C4      -11.761149114050108        4.8202675004947979        11.657109441119898     
 C4       14.835654768837019        7.6578749346709918        5.4015933384044938     
 C4      -5.2970885806609100        15.864887858727837       -8.1226158437780001     
 C4      -3.8893949945551474        13.193299403730785       -12.162033791844861     
 C4       4.7126177466094887        2.9993001728744986        14.207300596639071     
 C4      -16.298183572759225        12.926802660423327      -0.41338953550327490     
 C4      -15.858098074271830       -3.8352193969553832       -7.8013025637675071     
 C4      -13.316173589459725        8.4898242576685572        14.221426481001483     
 C4       15.538419646235864        5.0881201620759660        8.2722908753146989     
 C4      -11.319139064890772       -1.0196361822682345        8.1950558104293272     
 C4      0.23143358022787436       0.84057350428928201       -12.272478697777450     
 C4       2.1927222621297928       -9.6471151031717248       -14.745988713530236     
 C4      -10.232915772402928        4.8186062462140038        6.8037357486819312     
 C4      -5.1526904806233906       -11.093222524608263       -1.9685723124580423     
 C4       8.9073956193040136       -10.711371122539456        3.7198513012441299     
 C4      -3.7952244196208853       -4.2046630519399484       -1.0521328071542948     
 C4       15.966786649871777        12.602748555587706       -5.3830532564022144     
 C4      0.80980745786368513        5.2297517687525668        14.073824369428909     
 C4      -16.306899805686591        9.3057736733319647       -2.9600402088776856     
 C4       10.075764163887271       -12.411842931542212       -3.1423497464360577     
 C4       4.8650839300441469       -11.881435589203754        15.691303256138724     
 C4      -2.2412940648566679        6.3209983509856116      -0.50710720854333469     
 C4       5.8101055794121566       -12.728101067399345       -12.314780605361280     
 C4       7.5182359585034595        13.424548352401784        4.7847502324206159     
 C4      -13.982099865783615        2.0821412344302654        7.5494648690998183     
 C4      -2.0695647015412146        7.9144246843058310        14.751392813076531     
 C4       14.307035132175990       -8.7228864598623197       -3.9425976186704861     
 C4      -6.9437845937392808       -7.3329921233689781       -3.3769923702942495     
 C4      -3.5234338369101259       -9.4764111095635464        6.5358513301600913     
 C4      -12.864942735813289       -13.278208744314174       -7.6948039832801323     
 C4       7.9180612640171351        7.5263362960230626       -6.2019880292883105     
 C4      -12.452910826913104       -7.7641822512292240        13.972182746549514     
 C4      -2.2571381808095778       -3.3852252018871871       -11.812638264254636     
 C4      -10.544007515032114        12.038063997363905        2.3146469466063104     
 C4       1.3938380401569899       -8.9177028698516452       -3.9874444038739689     
 C4      -2.1501985230056233        16.326457870264477       -11.250659309084972     
 C4      -11.190486210827416       -12.401315988086409       -4.1631928275955188     
 C4       5.1336560664869877       -3.6174134020085220      -0.49264915868186615     
 C4      -13.955140780219200        5.5723075281240551        4.1210504029952055     
 C4      -8.8922351199300937       -8.3410600963469275        12.605369609993529     
 C4      -1.0082179564596356      -0.32029344964346701        4.3273821481486214     
 C4      -8.6131810208269979       -3.8219409172223759      -0.96721266898565139     
 C4      -14.892599338090969       -11.865810065211706        15.740520012977846     
 C4       11.382863772398055       -12.263409784717849        12.408053184872033     
 C4      -13.891797766745208        7.3716620413057861       -10.569935884093507     
 C4       3.0922459003749512       -9.9919730244804725        12.249820317267105     
 C4       13.521562116638568       -3.1363028998209992       -7.9924864506449103     
 C4      -15.149424339342904       -1.8933485319557781       -12.301820737235039     
 C4      -9.5320538504416170        9.4360529768002674       -8.4580083977205174     
 C4      -7.5968185168018811       -10.252021527135820       -6.3904271392794021     
 C4      -11.368482784741250       -13.227578131044949        7.0690836184709758     
 C4       3.2336192421431624       0.89969322070649282       -3.4576183737321591     
 C4       4.4300143528330418       -2.0617082347200046       -15.853397899339857     
 C4       15.195364867244317       -13.335574010662381        12.043739409031998     
 C4      -6.2471583482809612        8.4319231608448693        7.7645232178636654     
 C4      -12.168646395840980        15.404076427927096        6.5383355448333784     
 C4      -1.0597498692517018        9.4482666738491652       -12.284625810213981     
 C4       15.472867257942951        8.4429439814135119        1.5732659812475331     
 C4       7.4165556116590956        2.4607540258273768       -10.156850837173630     
 C4      -2.3129192784442223       -2.7172232817480966        9.3778177761701595     
 C4      -10.659629745996881        11.751329791874770        9.6880287370615452     
 C4       1.2231090120018562        4.0871954258583010        1.9091473561247747     
 C4       13.832368829931589       -9.6267547641380169       0.87708744775735825     
 C4      -9.4537158432151589        15.752312342787588       -5.4610287506001587     
 C4      -13.338988282570446       -2.4756350415853068       -16.094663868105769     
 C4      -12.381405649838729        10.859344792823872       -11.392095873792899     
 C4      -14.913367878575475       -12.750877626464193       -12.942322024127821     
 C4      -8.8684987207218899        8.6712487160047687        15.493042097291235     
 C4       1.6892154347052699       -2.0145683071157645       -6.8691247676024911     
 C4      -14.798869036798783       -14.659268214164678        6.6753514949384387     
 C4      -3.5424447208321670        5.1598448639632242       -5.8820524987907188     
 C4      -13.946264298893688       -9.1031808154110969       -11.524638104564188     
 C4       8.4696071087738485       -6.2516412560302763        5.9166488252850682     
 C4      -4.1508689411089863        1.8544842920732787        11.033599867571469     
 C4     -0.91509622861067652       -7.1119318865616572       -8.0399512787070559     
 C4      -13.005621434001803       -2.8275858541988526       -4.8654843353159958     
 C4      -12.426696040906615       -1.7497188298104362        12.168509063018561     
 C4       9.0649617239250091       -6.5204774069800866       0.36123755345686021     
 C4       12.131993999438253        2.0312523804274130       -6.1514124724788761     
 C4       13.314826915573450       -6.7505284662883671       -7.5634836993274153     
 C4       3.0257612790216846        8.3809282479972715       -5.9068068438029151     
 C4      -15.054254855465766        15.778497065904713       -10.097054394268028     
 C4      -11.068909157597643        15.887882741638775        10.219724019026438     
 C4       11.424727608616616       -5.4977752552816206       -3.2918880691664869     
 C4       14.890785743232804        1.5474708852223205       -10.261256732801382     
 C4      -7.9799450320664365       -4.6247190628765154       -7.7946857612098004     
 C4      -6.7298318839117579        12.635249759235116       -6.7628660610155515     
 C4       15.476972015472912        2.1678373538236402       -14.214992400694882     
 C4       9.6223129908192693       -4.4606741384436210        9.4395464081729070     
 C4       12.316972452652205        6.1323971806843662       -5.1289460007754437     
 C4       2.9710774198701548        1.6823840254093589       -8.4645166502651055     
 C4      -6.5638894998917365       0.95688148243318183       -6.9944630660739291     
 C4       12.663765681651277       -8.5708479695413811        11.009570130940316     
 C4      -3.1179732527874542        1.8341947797721327       -15.084152257432367     
 C4      -10.082212905834233       -8.7483892366448011        3.4132539389739698     
 C4     -0.10528671171380043       -4.7586733842861682       -3.7579884422122971     
 C4     -0.39891183321843265        16.366330961906119        14.921722031945883     
 C4       1.3297128415147965        4.6830974274386605       -2.2792822006314601     
 C4      -5.3902325390017776       -4.4591730646855510       -4.6385210694684904     
 C4      0.77907316878717969       -3.4989692638104652        1.8457247901276463     
 C4      -16.177196530554387       -14.769986012427484       -6.1765694004508074     
 C4     -0.70828272725948316       -11.308274537723037       -1.1951786676427314     
 C4       10.174416758184545       -1.9363135579274633       -8.4789768358298652     
 C4       4.1665122640704002       -11.849011347861516       -7.5202486104341952     
 C4      -4.8163957566825903       -14.412462640216114       -4.3295092543428559     
 C4       12.297077257919394       0.66144708700821375        8.0257894347689707     
 C4      -5.8119294116541287        13.894541945198418       -3.0162761509188978     
 C4       13.644830776443831       -6.9336833045147053        5.2910066938098064     
 C4      -12.620224465602002       -7.3511048303225390       0.84516824186056660     
 C4       3.5220753560464786      -0.70210785181160296        13.127346438132093     
 C4       11.978962122956677       0.31438190923831111       -2.6878725439319040     
 C4      -6.7960852213860248      -0.69462755197101489        7.6276044227891546     
 C4      -7.9365810630588323       -4.5812359640150557        8.1670689576199607     
 C4      -9.8574019404393702       -7.9715884223098517        7.9735039200651459     
 C4     -0.56730141540705126       -5.6530163245788945        16.098995499064806     
 C4      -8.9878927907206094       -15.198291483976433       -1.1287710036424317     
 C4      -5.9298441785504981       -15.362396754698180        3.0362336286677212     
 C4       6.0810976453789563       -7.4222082213243334        3.0194450686614838     
 C4      -9.7505371219677954       -9.8538869791023043       -13.106022307862773     
 C4      -1.2038723760188217       -2.6482863871182341        13.135105422663338     
 C4      -16.138481359759403       -6.0009967175147292        14.492831622313076     
 C4     -0.11677677461523950       -14.504134196246687       -8.0911704188180824     
 C4      -13.821872442669294       -3.5190518880381374        2.1380385380819202     
 C4      -7.3675767689938612       -5.9107407652502015       -12.735924201651663     
 C4       10.735530214715109        4.4386524399573739        11.789557669331149     
 C4      -2.7473194513314581       -12.154952558906070       -14.968112447723483     
 C4      -6.1182647224925573        11.010994034408270        12.522801504654701     
 C4      -14.723169177283630       -7.9012067085708688       -15.230904056481780     
 C4       6.5616802074722314        4.0272638451150886        10.415286424292757     
 C4      -4.0444206302991370        9.2793864065747691       -8.5779165086173812     
 C4      -1.3168452603871363        13.456692520457761        6.2729125848580010     
 C4      -8.1784722517248696       -7.9300735825904898       -9.5588229552893367     
 C4      -14.675443440868653       -5.9921970999381857        6.0707873908505263     
 C4      -2.8941306724131040        10.907590338739851        10.596769826230766     
 C4      -12.741771739475919        9.9129981844525048       -3.9413728409947661     
 C4       14.425007727984033       -9.5230776925547964       -14.271234555546471     
 C4       4.1089265637217602       -5.0086699369103345        14.502300626793311     
 C4      -10.114920258197595       0.46470671962944304        1.3270163134050943     
 C4       1.8058710100699042       -12.625587073042071        6.7113562626216146     
 C4       12.648751619622999        8.2601546756755955       -13.516102770269757     
 C4      -15.552977978291123        13.014480413234422        6.7930648954405495     
 C4      -10.314532919765380        12.007554982051637       -1.6570828126039328     
 C4       13.805903306745524       -3.5856827556095339      -0.78886439417009402     
 C4       9.1584960180247368        11.615287403673518        7.9657648565684473     
 C4      -12.381184830210316        8.5446913295345102        2.0990468842053893     
 C4       3.1396829779847462       -16.026713946430405       -5.8154498220944824     
 C4      -5.4374037059275544        13.508583218679744        9.2804446843220170     
 C4       5.3756414911886301        13.025890668957020        10.968115351714076     
 C4       10.569372848453858       -11.739838395696518       -12.867136457359299     
 C4       11.856821179200903        7.1405156493851329        14.414543966064208     
 C4      -10.767295212308261       -5.6302382102873931       -4.2589141532346115     
 C4      -16.291666025196676       -14.796337278270453       0.27381699505020113     
 C4      -8.2459060355029141        7.4743225990946627        4.0758116798046276     
 C4      -16.037621049173143       -10.943998996370402       -1.4420014346042709     
 C4      -3.9624807330523262       -5.8857308856449704        7.3177871869879132     
 C4       5.5707668749052468       -16.093105080664902       -10.544973598464770     
 C4      -13.113003599758974       0.69008494641006402        4.1183165343729584     
 C4      -4.8548991810798130       -8.0229941629353441        15.597082043483569     
 C4      -14.818298391384428        14.535978571820326        13.023756953862105     
 C4      -10.709967978600591        4.4194198382394285        2.3227446109293837     
 C4       16.199858268672234        2.4280606096571997        4.5562079812017071     
 C4      -5.6647811737699545       -8.2479175874862154        10.048948513617169     
 C4      -11.274078082317986        12.804205350244695       -7.9239421693164251     
 C4      -7.6751868130178886        4.7711187876878371       -16.088145464887070     
 C4       15.893689203865845       -12.482806465151839        3.5412158601402974     
 C4      -3.4618051745857339        13.617190371126938        13.434662876147465     
 C4      -1.6371951229562407        15.391406397416297        10.512406462177642     
 C4       10.875238632947475       -9.5461355439367139       -5.4639013591075214     
 C4      -15.215508338655077       -10.765372632580101       -5.3024710103178565     
 C4       15.895185443755958        15.170615234796761        9.3949165146731897     
 C4       3.8066345646113438        7.5204659800215907       -13.869956388053549     
 C4      -12.924272247118871        2.6798615676234467      -0.79728772042279572     
 C4       7.6158002122538733        2.4577119858425389       -3.4405717786896792     
 C4      -3.0873907549385335       -6.5522749822552786       -14.009971593997182     
 C4      -13.146812958865620        14.091282733352887       -13.402011925727255     
 C4       1.1277911535360554        5.4951016955110985       -8.5251833054022530     
 C4      -9.6052445575606153      -0.89771319677101047       -15.147603838569255     
 C4       6.4664962718709846        15.468194705715206        7.8218996330284876     
 C4      -15.640730409616571        9.8027733366668706        9.1951212447714283     
 C4       4.0088324893614935      -0.19578439321337229        1.5668736928972165     
 C4       2.2357783906234419       -6.0968110248829568        11.377362423344296     
 C4      0.77718983214452664       -1.5556776861556147        16.158748277536287     
 C4      -3.9057845955293233        6.4437284611687335       -15.318129616749358     
 C4      -8.4910547583196951       -2.3793429258819065        3.8273386402246810     
 C4       7.1910859950816732       -8.2591606957954689        15.029957769278665     
 C4      -5.7990035026536084       -11.965932654113097        14.717098082966309     
 C4      0.31710444865433385        5.9079860546247520       -14.666815109568835     
 C4       14.660020164083477        12.520204051945171        3.9536337000759167     
 C4       13.546607185612890       -15.400375946400535        2.4489382767309187     
 C4       6.4128630748438731       -14.206203426965025        2.8550547257298069     
 C4       15.344924659212714        2.3033722404939700        13.910671041210513     
 C4       1.0226422827034187       -15.210311331130844        11.803689616872370     
 C4      -6.5651110813098992       -4.2324947194685194       -16.169491981853724     
 C4       11.955414114222414        10.002948139256251        5.0321951829014129     
 C4       10.170384288284538        5.7684834330431674        4.3747412430802006     
 C4       7.7715796597159512       -3.4449908384828745        13.225388309711930     
 C4      -2.6968351711275775       -15.991235354035094        2.5686417859980017E-002
 C4      -5.0853198497746028       -14.275690217549714        6.6206949018955381     
 C4       4.1093762057847352        12.526245512684399       -7.5810272796262730     
 C4       7.4057041554986327       -8.0370014706550172        9.3932444965758712     
 C4      -4.3946295955365322       0.49240763127361575       -10.779494892918169     
 C4     -0.87490885831472920       -16.048758928845540       -3.5336460579377169     
 C4     -0.90194444102905136        9.5254867711071487        7.7697969524755965     
 C4      -5.9377275083340093       -15.499433933561674       -13.256249231456469     
 C4      -11.710728233863016      -0.80612333608300701       -1.8567770523578475     
 C4      -2.6853044976320763        3.9300795685707435        3.9686706164864831     
 C4      -4.8404641625305489      -0.38354919799049664        15.428242267678389     
 C4       2.7870539918522765       -2.9834688678163221        9.6505795091555964     
 C4      -8.4141537731910514       -14.176959791376186       -9.3350344914005934     
 C4       5.3060673993943546       -2.8928826576497020       -7.7668150003644501     
 C4      -7.2280099598331873        3.5911010639202416       0.88972553612057625     
 C4       8.7178295301411044        3.9228777799577443        1.1581088161088202     
 C4       9.4008566312821493        16.363970645306775       0.87179530664406957     
 C4      -8.3723740929807295        13.669013413427255       -14.588848693221410     
 C4      -16.010869182488971        1.7271783600188038       -2.9035504762310529     
 C4      -5.0211095430163013        13.290524265483416        4.5677809345878968     
 C4      -9.9208197798014019        5.6452433734301586       -11.654776676736308     
 C4       1.6204945866418083        12.051194565974514       -12.246007028920969     
 C4      -12.363731960723564        1.0810583576611053       -9.9624614153716955     
 C4       7.6218815034397593       -9.0986627317110464       -13.519991159294230     
 C4      -12.974216558571277        2.2397217310698720       -5.2925320531579620     
 C4      -9.1438090419288685        7.7319803510529770        10.591035059530585     
 C4      0.17235792143162307        11.453519295255809       -6.0753025770366733     
 C4       11.430340230487920      -0.68309106272130293        15.920942385194865     
 C4       4.1202035381899345        10.428681029205391        4.9689727271557542     
 C4       13.436452812296940       -14.452635181750056       -1.9036151407760051     
 C4      -6.8789591652788582       -6.8167064711778194        5.0916916535707921     
 C4       4.2110728172025267        6.0197734592635488        4.6472977752072939     
 C4      -1.6242991185315161        5.4866821586125463        9.9470801379489409     
 C4      -2.7022220049260017       -9.5509880985798254       -11.463158760503244     
 C4      -14.868047885805540       -7.4709038999152986        9.6776719051788689     
 C4      -11.567595233152820        5.5310553170668442       -5.9271607551437597     
 C4       14.893846173956224        2.2910945369665101       0.85658329587057991     
 C4       6.2737429290100515       -13.405448102971027        8.2834965874482673     
 C4      -13.638330966057962       -10.196450953474343        7.2167979151385655     
 C4      -15.851397673869887       -4.3567295128858392       -3.2662925396239619     
 C4      -1.9298170693461616        1.8637224303317408        7.5641047677908224     
 C4       9.6287904892174030        4.1700575958552690        7.8266497292200103     
 C4      -5.6009335430459792        5.2764115276977366        10.417084001670645     
 C4      -2.4440606602979815        5.1273806278577503       -11.767830071812213     
 C4       13.013134522385137       0.89116576240440915        4.2655265032659555     
 C4      -2.7504066211024427       -1.2430028454078887       -4.7102131810689896     
 C4      -9.3521637231041161        1.2977066392404966        4.9456475278799195     
 C4      -11.874035300271286       0.89551864710589058        15.012456100311926     
 C4       7.9468646433596222E-003   9.2808527614168526       -1.1670939812534167     
 C4      -5.2294539008575196      -0.34959752506828939      -0.30101238531409263     
 C4      -1.8597443371636850        11.751725888689643       -16.174161292590178     
 C4       4.6575898092252848       -15.605548063954158        11.909479447950586     
 C4      0.81044829189245382       -8.4915184512992905        3.6203260462547511     
 C4      -9.2851677466344835        2.4667303838258854       -3.0884015580643296     
 C4       3.6733211853793399       -5.9391031558393301       -6.2393979363849539     
 C4       4.3378509994590546       -1.3183738385621222        5.2065551922975546     
 C4      -7.9735173758742119        14.927547130996992        7.1281943320843677     
 C4       2.6260471848416569       -15.139863552432562       0.37350377831070980     
 C4       12.142382187025323       -3.3087261470932798        6.7278628302518566     
 C4      -7.7393918329203393       -1.6332281886296809       -4.8686593220799725     
 C4       7.4241620210910657        9.5429394767709947        2.6529686613846430     
 C4      -5.2032948317633121        12.099976861656367        1.3579699347607348     
